47
Lattice="21.0259 0.0 0.0 0.0 13.8413 0.0 0.0 0.0 16.2881" Properties=species:S:1:pos:R:3:forces:R:3:magmoms:R:1 energy=-288.63097956619373 dipole="0.05696961688976953 -0.399151729939487 0.10699980724542794" magmom=0.0 free_energy=-288.63097956619373 pbc="F F F"
H        4.68874523       3.99904601       6.38528604       0.01438200      -0.00445838      -0.02403322       0.00000000
H        3.96908420       5.19893001       4.29614169      -0.00918143       0.00583156      -0.00687650       0.00000000
H       15.53784320       6.82706349       9.30655284       0.03827150      -0.00251854      -0.00104244       0.00000000
H        5.58044104       5.28692546       8.31454168       0.00080209      -0.01755232      -0.00835856       0.00000000
H        4.98728361       8.96562726       6.11807879      -0.00320456       0.02124501      -0.00741200       0.00000000
H       13.17092286       6.16191351       9.42539731       0.02005727       0.00397731      -0.02117274       0.00000000
H       12.50841985       7.97921559       5.55527976      -0.00909602       0.02982874      -0.01264683       0.00000000
H        8.25466823       8.16924627      11.83013469      -0.01216278       0.02207363      -0.00406636       0.00000000
H        7.07100346       9.43356335      12.30317303       0.00689885      -0.02757288       0.01112644       0.00000000
H        8.43101205       9.85299428      11.23802627      -0.00235027      -0.01206525       0.00003711       0.00000000
H        9.45747589       4.68449437       7.17463012      -0.01309654       0.01331032       0.02206330       0.00000000
H        9.17138806       4.42029880       8.93380468       0.00480090       0.00877527       0.01141329       0.00000000
H        8.82717047       6.82258272       6.18495230      -0.00587447       0.00859454       0.01197684       0.00000000
H        8.20207093       8.11802046       7.24814851      -0.00902626       0.00000080      -0.01851312       0.00000000
H       10.92407442       6.01837871       9.52196626      -0.00304824       0.01003367       0.00519062       0.00000000
H       11.61325861       4.80603789       8.39617679       0.00366553      -0.00020163       0.01528095       0.00000000
H       10.62390817       8.46236548       6.63516571       0.00598714       0.00949121      -0.00883190       0.00000000
H       10.33785716       8.35226563       8.39381182       0.00126931      -0.00454318      -0.00278203       0.00000000
O        8.09558656       5.87076505      10.39081603       0.04374778       0.00676207       0.00406802       0.00000000
F        4.07052452       7.78244006       3.99590306      -0.00205828      -0.00035860      -0.00657902       0.00000000
Cl      17.03224286       8.26034172       7.37619993       0.02371422       0.01082974      -0.02353603       0.00000000
Cl      15.05677787       8.98259900       4.95060758       0.02427912       0.02401863      -0.00346124       0.00000000
N        5.16427345       9.05542212       8.90058050       0.02711641       0.00113969      -0.02746186       0.00000000
O        5.82452620       9.51267435      10.02177142       0.01556385      -0.00934490      -0.01808945       0.00000000
C        7.91648121       6.56314218       9.37170753      -0.01660996      -0.01718452       0.02024285       0.00000000
C        5.83631942       7.97379510       8.50211591      -0.00775036      -0.01352554       0.00744204       0.00000000
C        6.87623679       8.70315450      10.31024513       0.00239350      -0.01477381       0.00144496       0.00000000
C        4.77392203       5.08731643       6.31966896       0.00371324      -0.01406367       0.00367111       0.00000000
C        4.36148438       5.74367178       5.15799887       0.00295686      -0.01360183      -0.00752765       0.00000000
C       14.86369123       7.08090821       8.48547247       0.02665349      -0.00209077       0.01501263       0.00000000
C        5.27902291       5.80652282       7.40138696      -0.02067606      -0.00450988       0.00793062       0.00000000
C        4.94149752       7.87666411       6.18398424      -0.02028844       0.00922538       0.00790266       0.00000000
C       13.52495294       6.70390789       8.54608766       0.00023978       0.01153534       0.00468869       0.00000000
C       13.15321976       7.75318010       6.40698275      -0.00850570       0.01341512      -0.00562025       0.00000000
C        4.45947673       7.12948850       5.11882953      -0.00508213       0.00597262      -0.00702607       0.00000000
C       15.36311649       7.80055449       7.40115638       0.01176488      -0.00934138       0.00900323       0.00000000
C       14.49011219       8.13169272       6.35101349       0.01172716       0.00049449       0.01267985       0.00000000
C        6.94578194       7.70095161       9.37043155       0.00116394      -0.04173229       0.02469522       0.00000000
C        5.35831658       7.20623943       7.34223642      -0.01091875      -0.00599862       0.01097420       0.00000000
C       12.64348968       7.04278283       7.50654231       0.00134846       0.00832638      -0.01128691       0.00000000
N        8.55377810       6.26758433       8.18362947       0.03502111       0.02462847       0.02053978       0.00000000
N       11.28318600       6.66233697       7.50150491       0.00429058       0.02280556       0.00472328       0.00000000
C        7.70570402       9.05793294      11.48545706      -0.01313542       0.00160086      -0.00005095       0.00000000
C        9.48965005       5.14939371       8.17649260      -0.00931953       0.02941315       0.01414257       0.00000000
C        8.90412473       7.27488369       7.19012581       0.00274588       0.01123056       0.00445036       0.00000000
C       10.90040793       5.64315092       8.47512859       0.00446054       0.01279779      -0.00389556       0.00000000
C       10.32734285       7.77407978       7.44045181       0.00005095       0.00635125      -0.01004125       0.00000000
